tests/data/state_estimation/pandapower/symmetric/distribution_radial/input.json
{
  "node": [
    {
      "id": 1,
      "u_rated": 20000.0
    },
    {
      "id": 2,
      "u_rated": 400.0
    },
    {
      "id": 3,
      "u_rated": 400.0
    },
    {
      "id": 4,
      "u_rated": 400.0
    },
    {
      "id": 5,
      "u_rated": 400.0
    },
    {
      "id": 6,
      "u_rated": 400.0
    },
    {
      "id": 7,
      "u_rated": 400.0
    },
    {
      "id": 8,
      "u_rated": 400.0
    }
  ],
  "line": [
    {
      "id": 9,
      "from_node": 2,
      "to_node": 3,
      "from_status": 1,
      "to_status": 1,
      "r1": 0.000416,
      "x1": 0.000136,
      "c1": 1e-09,
      "tan1": 0.0,
      "i_n": 10000.0
    },
    {
      "id": 10,
      "from_node": 2,
      "to_node": 4,
      "from_status": 1,
      "to_status": 1,
      "r1": 0.000385,
      "x1": 0.000395,
      "c1": 0.0,
      "tan1": 0.0,
      "i_n": 10000.0
    },
    {
      "id": 11,
      "from_node": 3,
      "to_node": 5,
      "from_status": 1,
      "to_status": 1,
      "r1": 0.00542,
      "x1": 0.00174,
      "c1": 1e-09,
      "tan1": 0.0,
      "i_n": 10000.0
    },
    {
      "id": 12,
      "from_node": 4,
      "to_node": 6,
      "from_status": 1,
      "to_status": 1,
      "r1": 0.0085,
      "x1": 0.00286,
      "c1": 0.0,
      "tan1": 0.0,
      "i_n": 10000.0
    },
    {
      "id": 13,
      "from_node": 5,
      "to_node": 7,
      "from_status": 1,
      "to_status": 1,
      "r1": 0.0185,
      "x1": 0.01485,
      "c1": 1e-06,
      "tan1": 0.0,
      "i_n": 10000.0
    },
    {
      "id": 14,
      "from_node": 6,
      "to_node": 8,
      "from_status": 1,
      "to_status": 1,
      "r1": 0.098,
      "x1": 0.025,
      "c1": 1e-06,
      "tan1": 0.0,
      "i_n": 10000.0
    }
  ],
  "transformer": [
    {
      "id": 16,
      "from_node": 1,
      "to_node": 2,
      "from_status": 1,
      "to_status": 1,
      "u1": 20000.0,
      "u2": 400.0,
      "sn": 400000.0,
      "uk": 0.04,
      "pk": 0.0,
      "i0": 0.0,
      "p0": 0.0,
      "winding_from": 2,
      "winding_to": 1,
      "clock": 5,
      "tap_side": 0,
      "tap_pos": 0,
      "tap_min": -5,
      "tap_max": 5,
      "tap_nom": 0,
      "tap_size": 2300.0
    },
    {
      "id": 17,
      "from_node": 1,
      "to_node": 2,
      "from_status": 1,
      "to_status": 1,
      "u1": 20000.0,
      "u2": 400.0,
      "sn": 630000.0,
      "uk": 0.04,
      "pk": 0.0,
      "i0": 0.0,
      "p0": 0.0,
      "winding_from": 2,
      "winding_to": 1,
      "clock": 5,
      "tap_side": 0,
      "tap_pos": 0,
      "tap_min": -5,
      "tap_max": 5,
      "tap_nom": 0,
      "tap_size": 2300.0
    }
  ],
  "sym_load": [
    {
      "id": 18,
      "node": 7,
      "status": 1,
      "type": 0,
      "p_specified": 65550.0,
      "q_specified": 21540.0
    },
    {
      "id": 19,
      "node": 8,
      "status": 1,
      "type": 0,
      "p_specified": 70000.0,
      "q_specified": 30000.0
    }
  ],
  "source": [
    {
      "id": 15,
      "node": 1,
      "status": 1,
      "u_ref": 1.0,
      "sk": 1e+20,
      "rx_ratio": 0.1
    }
  ],
  "sym_voltage_sensor": [
    {
      "id": 20,
      "measured_object": 1,
      "u_sigma": 100.0,
      "u_measured": 19999.99
    },
    {
      "id": 21,
      "measured_object": 2,
      "u_sigma": 101.0,
      "u_measured": 399.16
    },
    {
      "id": 22,
      "measured_object": 3,
      "u_sigma": 100.0,
      "u_measured": 399.09
    },
    {
      "id": 23,
      "measured_object": 4,
      "u_sigma": 100.0,
      "u_measured": 399.06
    },
    {
      "id": 24,
      "measured_object": 5,
      "u_sigma": 100.0,
      "u_measured": 398.09
    },
    {
      "id": 25,
      "measured_object": 6,
      "u_sigma": 100.0,
      "u_measured": 397.25
    },
    {
      "id": 26,
      "measured_object": 7,
      "u_sigma": 100.0,
      "u_measured": 394.2
    },
    {
      "id": 27,
      "measured_object": 8,
      "u_sigma": 100.0,
      "u_measured": 377.06
    }
  ],
  "sym_power_sensor": [
    {
      "id": 28,
      "measured_object": 9,
      "measured_terminal_type": 0,
      "power_sigma": 100.0,
      "p_measured": 66295.35,
      "q_measured": 22002.88
    },
    {
      "id": 29,
      "measured_object": 9,
      "measured_terminal_type": 1,
      "power_sigma": 100.0,
      "p_measured": -66282.61,
      "q_measured": -21998.77
    },
    {
      "id": 30,
      "measured_object": 10,
      "measured_terminal_type": 0,
      "power_sigma": 100.0,
      "p_measured": 74359.15,
      "q_measured": 31105.2
    },
    {
      "id": 31,
      "measured_object": 10,
      "measured_terminal_type": 1,
      "power_sigma": 100.0,
      "p_measured": -74343.45,
      "q_measured": -31089.1
    },
    {
      "id": 32,
      "measured_object": 11,
      "measured_terminal_type": 0,
      "power_sigma": 100.0,
      "p_measured": 66282.61,
      "q_measured": 21998.77
    },
    {
      "id": 33,
      "measured_object": 11,
      "measured_terminal_type": 1,
      "power_sigma": 100.0,
      "p_measured": -66116.64,
      "q_measured": -21945.54
    },
    {
      "id": 34,
      "measured_object": 12,
      "measured_terminal_type": 0,
      "power_sigma": 100.0,
      "p_measured": 74343.45,
      "q_measured": 31089.1
    },
    {
      "id": 35,
      "measured_object": 12,
      "measured_terminal_type": 1,
      "power_sigma": 100.0,
      "p_measured": -73996.87,
      "q_measured": -30972.48
    },
    {
      "id": 36,
      "measured_object": 13,
      "measured_terminal_type": 0,
      "power_sigma": 100.0,
      "p_measured": 66116.64,
      "q_measured": 21945.54
    },
    {
      "id": 37,
      "measured_object": 13,
      "measured_terminal_type": 1,
      "power_sigma": 100.0,
      "p_measured": -65549.9,
      "q_measured": -21540.0
    },
    {
      "id": 38,
      "measured_object": 14,
      "measured_terminal_type": 0,
      "power_sigma": 100.0,
      "p_measured": 73996.87,
      "q_measured": 30972.48
    },
    {
      "id": 39,
      "measured_object": 14,
      "measured_terminal_type": 1,
      "power_sigma": 100.0,
      "p_measured": -70000.0,
      "q_measured": -29999.99
    },
    {
      "id": 40,
      "measured_object": 16,
      "measured_terminal_type": 0,
      "power_sigma": 100.0,
      "p_measured": 54623.11,
      "q_measured": 20966.83
    },
    {
      "id": 41,
      "measured_object": 16,
      "measured_terminal_type": 1,
      "power_sigma": 100.0,
      "p_measured": -54623.11,
      "q_measured": -20624.5
    },
    {
      "id": 42,
      "measured_object": 17,
      "measured_terminal_type": 0,
      "power_sigma": 100.0,
      "p_measured": 86031.4,
      "q_measured": 33022.76
    },
    {
      "id": 43,
      "measured_object": 17,
      "measured_terminal_type": 1,
      "power_sigma": 100.0,
      "p_measured": -86031.4,
      "q_measured": -32483.59
    }
  ]
}